reduced_networks/ieee8500/41pct/dss/validation.csv
bus_id,phase,target_v_mag_pu,solved_v_mag_pu,magnitude_error_pu,complex_error_pu
sourcebus,a,1.049999857831033,1.049999862454460,0.000000004623428,0.000000007737854
sourcebus,b,1.049999900013405,1.049999904191597,0.000000004178192,0.000000006722998
sourcebus,c,1.049999942894334,1.049999946483082,0.000000003588748,0.000000007095856
_hvmv_sub_lsb,a,1.049278981486604,1.049664753076217,0.000385771589614,0.000676518821117
_hvmv_sub_lsb,b,1.047757401150244,1.048201591226415,0.000444190076171,0.000701030347125
_hvmv_sub_lsb,c,1.050348556550898,1.050640451721517,0.000291895170619,0.000579100713464
m1009763,a,0.999519761779355,1.001821233956570,0.002301472177215,0.002892862523825
m1009763,b,1.011169495679010,1.013397897090021,0.002228401411011,0.003192464125283
m1009763,c,1.030432391466304,1.031335760652284,0.000903369185981,0.001887745360344
l2673322,b,1.011153174834428,1.013381675996682,0.002228501162254,0.003192538324364
m1069148,c,1.030674434699491,1.031392274879528,0.000717840180037,0.001301730877547
l2673309,c,1.030634552556245,1.031352616983618,0.000718064427374,0.001301893912963
m1069588,b,1.010423106776574,1.012286121978349,0.001863015201775,0.002761067026669
l2804270,b,1.010418130628004,1.012281169042021,0.001863038414017,0.002761082795625
m3036164,b,0.992892706916522,0.995262408148212,0.002369701231689,0.003261598407773
l2935553,b,0.992687991542801,0.995058954519830,0.002370962977029,0.003262573516409
l2748840,b,1.025643362801896,1.026413683850934,0.000770321049038,0.001114123008362
l3085398,a,1.006003199973385,1.008262068056842,0.002258868083458,0.002864223018880
l3085398,b,1.017259234774754,1.019448787411765,0.002189552637011,0.003166295776588
l3085398,c,1.031980321124772,1.032869827790184,0.000889506665412,0.001883439142111
m1026891,a,1.005543068650088,1.007804940109015,0.002261871458927,0.002865697013921
m1026891,b,1.016383661811717,1.018578908212342,0.002195246400625,0.003170092528973
m1026891,c,1.031823406475069,1.032714221262632,0.000890814787563,0.001884318512923
l3216367,a,1.015770005717395,1.017951390214309,0.002181384496914,0.002757575409527
l3216367,b,1.012078264802431,1.014351084608756,0.002272819806325,0.003169575883640
l3216367,c,1.023298539658055,1.024313779836565,0.001015240178511,0.002016522570774
m1069468,a,1.015677687132444,1.017859122261074,0.002181435128630,0.002757357155906
m1069468,b,1.011769240018155,1.014044787438393,0.002275547420237,0.003171880061747
m1069468,c,1.023192385015352,1.024209460198880,0.001017075183527,0.002019471176205
m1047592,a,1.022544746688287,1.024695975382081,0.002151228693794,0.002755322107712
m1047592,b,1.028330874046723,1.030451811298165,0.002120937251442,0.003077645271870
m1047592,c,1.036531104682207,1.037389047978284,0.000857943296076,0.001858867133957
m1047339,a,1.010147057531946,1.011680169261529,0.001533111729582,0.001803422172457
m1047339,b,1.004475356543370,1.006301092947583,0.001825736404213,0.002244306824519
m1047339,c,1.031240448887883,1.031970065684709,0.000729616796825,0.001299803956830
m1026915,a,1.005778433558262,1.008038973098528,0.002260539540266,0.002865922620715
m1026915,b,1.017573446972444,1.019760927258698,0.002187480286254,0.003165067888278
m1026915,c,1.031840900553929,1.032731114386470,0.000890213832541,0.001883632625813
m1026920,a,1.005489360615660,1.007751891905189,0.002262531289530,0.002867403049535
m1026920,b,1.017435348491832,1.019623673717828,0.002188325225996,0.003165672246503
m1026920,c,1.031704578947842,1.032595688484989,0.000891109537147,0.001884065262533
l3254207,a,1.013092584499136,1.015271352925912,0.002178768426777,0.002746014305582
m1069464,a,1.015532254534607,1.017713674901880,0.002181420367273,0.002756830753817
m1069464,b,1.011214247517169,1.013494671279658,0.002280423762488,0.003175987464172
m1069464,c,1.023007512020562,1.024027809210629,0.001020297190067,0.002024725878462
l2729406,c,1.009137383533102,1.009770804545109,0.000633421012006,0.001242011935449
l2897768,c,1.009063405791868,1.009697254129881,0.000633848338013,0.001242307833072
l3649301,a,1.018161930035814,1.020343349725231,0.002181419689416,0.002788942818871
l3649302,a,1.018109108330473,1.020290957385153,0.002181849054680,0.002789400002354
m1089113,b,1.035400260737367,1.036962601433007,0.001562340695640,0.002015071413123
m1047312,a,1.005432043659478,1.006995206754522,0.001563163095044,0.001827175926828
m1047312,b,0.999475529091713,1.001335951786883,0.001860422695170,0.002275455674255
m1047312,c,1.029960485568486,1.030696075298406,0.000735589729920,0.001301079440241
l2822871,a,1.010498214460073,1.012727954923715,0.002229740463642,0.002839079390246
l2822871,b,1.022392498826331,1.024549708408944,0.002157209582614,0.003129646371631
l2822871,c,1.033281715142751,1.034162190017390,0.000880474874639,0.001870761936517
l2973163,b,0.977881938575394,0.979892615010785,0.002010676435391,0.002416685674057
l3728038,a,1.016636308440937,1.018829818409441,0.002193509968504,0.002778103714282
l3728039,a,1.016562546669407,1.018756666551819,0.002194119882412,0.002778757397974
m1069567,b,1.012209648510919,1.014060078559026,0.001850430048108,0.002751369794002
m1069582,b,1.010952170209719,1.012811442382240,0.001859272172521,0.002758169020605
l3216351,a,0.997696493984130,1.000029965519850,0.002333471535720,0.002895057925187
l2952007,c,1.025316476470634,1.025777767664275,0.000461291193641,0.000790080751139
l2861158,c,1.025269166746042,1.025730714934857,0.000461548188814,0.000790288564794
m1026726,a,0.998438272542875,1.000767063024831,0.002328790481957,0.002889342884456
m1026726,b,1.023888309323562,1.026083358264985,0.002195048941423,0.003095175500650
m1026726,c,1.016894802122077,1.017936755525082,0.001041953403006,0.001927350879855
l2730106,a,0.948856598675178,0.950202071004170,0.001345472328992,0.001766616823474
l2730106,b,0.980929641407505,0.982339187010593,0.001409545603088,0.002085772193836
l2730106,c,1.036023150817364,1.036576659136316,0.000553508318953,0.001310630221925
m1026658,a,0.997464810049912,0.999798503966669,0.002333693916757,0.002896034453197
m1026658,b,1.024129699174068,1.026324430571555,0.002194731397487,0.003091107891213
m1026658,c,1.014908614554615,1.015971010331124,0.001062395776509,0.001941266692176
l3172805,a,0.997439506351654,0.999773377642342,0.002333871290689,0.002896223365401
l3048962,a,0.990038676093814,0.991049864507651,0.001011188413837,0.001371256564180
l2991914,a,1.018739537875442,1.020922990655702,0.002183452780260,0.002764716501877
l2991914,b,1.025878110037085,1.028032538507254,0.002154428470169,0.003072934483344
l2991914,c,1.029454603006289,1.030385610792399,0.000931007786111,0.001882794044299
l2973154,a,1.015310353723885,1.017504854223727,0.002194500499842,0.002739462632293
l3010565,c,1.030235190264991,1.030955667687362,0.000720477422371,0.001303564600332
l2897775,c,1.030198119902588,1.030918801996078,0.000720682093491,0.001303751375245
m1125955,c,1.036309518030962,1.036825803069490,0.000516285038528,0.001181092293781
m1069640,b,1.007167607171546,1.009053967798949,0.001886360627403,0.002779189962740
l2804269,b,1.007064628816052,1.008951548201408,0.001886919385355,0.002779592873504
m1026702,a,1.001769389998283,1.004073374214708,0.002303984216425,0.002868061959897
m1026702,b,1.024426424114876,1.026612087684846,0.002185663569970,0.003090406413382
m1026702,c,1.019505719474663,1.020523430029975,0.001017710555311,0.001915630913284
l2783231,b,1.016814065368160,1.018629724947531,0.001815659579371,0.002724468946963
l2748143,a,1.004315933912700,1.006080139193549,0.001764205280849,0.002293818940487
l3251854,a,1.004300134932630,1.006064440070466,0.001764305137836,0.002293923566773
m1069610,b,1.008690877825650,1.010566275144693,0.001875397319043,0.002770673105028
m1069424,a,1.014409936393325,1.016590748854980,0.002180812461656,0.002752510151346
m1069424,b,1.006978935643995,1.009297181819492,0.002318246175497,0.003207559659046
m1069424,c,1.021582680187318,1.022629117026952,0.001046436839634,0.002066897609171
l2935549,a,1.014257735109358,1.016438367195774,0.002180632086415,0.002751777027570
l2935549,b,1.006400341382024,1.008723863020750,0.002323521638726,0.003211995450638
l2935549,c,1.021414280537112,1.022464315834350,0.001050035297238,0.002072804477361
l3235242,c,1.042894580855407,1.043518350784436,0.000623769929030,0.001542652288486
m1026795,a,1.013277947680188,1.015500284061602,0.002222336381414,0.002798792987385
m1026795,b,1.025471563021478,1.027635357614194,0.002163794592716,0.003078120189933
m1026795,c,1.026068400388902,1.027027508163610,0.000959107774708,0.001893159697930
l3030199,a,0.996297806450443,0.997275497753334,0.000977691302892,0.001340050920731
l3030199,b,1.001621415425284,1.002737567423033,0.001116151997749,0.001591815519354
l3030199,c,1.034144823520253,1.034646164848695,0.000501341328442,0.001115143608162
m1069189,a,1.031882704542006,1.033255074150206,0.001372369608199,0.001684362052162
m1069189,b,1.028586616539432,1.030209066402554,0.001622449863122,0.002062389189880
m1069189,c,1.032830361576764,1.033539283792551,0.000708922215787,0.001294373743534
l2860487,c,1.032811549719207,1.033520540040967,0.000708990321759,0.001294417196236
l3102286,b,0.980399553088344,0.981818305501753,0.001418752413408,0.002053255735166
f739845,a,1.003067486832382,1.004646218152254,0.001578731319872,0.001838528443949
f739845,b,0.995771255343600,0.997657268965512,0.001886013621913,0.002298375600667
f739845,c,1.029204922125891,1.029943838035817,0.000738915909927,0.001302620131328
293471,a,1.003058731932934,1.004637520300059,0.001578788367125,0.001838575699346
293471,b,0.995761080115247,0.997647165308181,0.001886085192934,0.002298433755674
293471,c,1.029195342797686,1.029934311235426,0.000738968437741,0.001302650795140
l3198355,b,0.997124312707980,0.998296525038479,0.001172212330499,0.001665002154749
l2860504,a,0.997854417020219,1.000186771248584,0.002332354228365,0.002893675661471
l2860493,a,0.997755632644660,1.000088679240342,0.002333046595683,0.002894413199395
m1026783,a,1.011757458475557,1.013990624748315,0.002233166272757,0.002807932972075
m1026783,b,1.025350946318259,1.027517378798699,0.002166432480439,0.003079614632835
m1026783,c,1.025236170029123,1.026202562125487,0.000966392096365,0.001895693997183
m1026700,a,0.998895076834282,1.001220212169141,0.002325135334860,0.002886145739915
m1026700,b,1.023998363480913,1.026191991587830,0.002193628106917,0.003094603063098
m1026700,c,1.017348883518580,1.018386609869024,0.001037726350444,0.001925166911979
m1089173,c,1.009524235928699,1.010155433178848,0.000631197250148,0.001240488176294
l2935551,c,1.009386997153464,1.010018994229123,0.000631997075659,0.001241035824472
m1026344,a,0.996701478988185,0.998322161642969,0.001620682654783,0.001869561481518
l2879070,a,1.020880622049202,1.023042805541294,0.002162183492092,0.002767662419538
l2879070,b,1.027756211033015,1.029880629525410,0.002124418492395,0.003083057087803
l2879070,c,1.036034022545526,1.036895741716762,0.000861719171236,0.001860361983226
l3216345,a,1.019752372679177,1.021922105925400,0.002169733246224,0.002776083940845
l3216345,b,1.027399866856101,1.029526332055937,0.002126465199836,0.003086685552763
l3216345,c,1.035758417619574,1.036622058958711,0.000863641339137,0.001860612479217
m1069428,a,1.014565047832867,1.016745864434379,0.002180816601512,0.002752939227251
m1069428,b,1.007468443018221,1.009782201348972,0.002313758330751,0.003203770413421
m1069428,c,1.021732165123937,1.022775454080561,0.001043288956625,0.002061842737557
l2991919,a,0.996140272952736,0.997764648204230,0.001624375251494,0.001873245205181
m1026361,a,0.995786329110492,0.997413067596695,0.001626738486203,0.001875605284244
q14412,a,1.008873641147401,1.010414800305594,0.001541159158192,0.001809781116568
q14412,b,1.003160735225360,1.004995666655303,0.001834931429944,0.002252601445475
q14412,c,1.030918549729006,1.031649624436265,0.000731074707260,0.001300034844941
m1047325,a,1.008511488878105,1.010054940492165,0.001543451614059,0.001811604448301
m1047325,b,1.002794904318782,1.004632363258475,0.001837458939693,0.002254870279288
m1047325,c,1.030823252730342,1.031554774904060,0.000731522173718,0.001300113408837
l3048227,a,1.015658221959791,1.017839783039803,0.002181561080012,0.002757469756049
m1069469,a,1.015669501574917,1.017850986558509,0.002181484983593,0.002757401316521
l2785522,b,1.012360147687763,1.014579982739781,0.002219835052017,0.003184858515362
l3216338,b,1.004111429940974,1.006385831476339,0.002274401535365,0.003227293684702
l2973146,b,1.004096288206895,1.006370795280011,0.002274507073115,0.003227394968022
m3037452,a,0.994750816513210,0.996384391098868,0.001633574585658,0.001882429601782
l2973164,a,0.994741234681895,0.996374843782895,0.001633609101000,0.001882462617439
l3120376,a,1.012111796878068,1.014330273938360,0.002218477060292,0.002826344279831
m1026925,a,1.011875614311034,1.014095486473097,0.002219872162063,0.002827554812008
l3141393,c,1.042829511589206,1.043453625972531,0.000624114383325,0.001542906099356
m1026940,b,1.014563172186566,1.016768874525404,0.002205702338838,0.003177498298519
m1047471,b,0.987336022693925,0.989809985601908,0.002473962907984,0.003338168362723
l3216349,b,0.987333125113732,0.989807103564726,0.002473978450994,0.003338183082561
m1047401,a,0.990002639626072,0.992384524459266,0.002381884833193,0.002937782709941
l2748132,a,0.989991354564223,0.992373300601604,0.002381946037381,0.002937836522142
l3122820,a,0.994097308862026,0.996451463246170,0.002354154384144,0.002912679878732
l3141398,a,0.994088843945838,0.996443042856488,0.002354198910650,0.002912726063592
l3048968,c,1.019682543677121,1.020259745158696,0.000577201481575,0.001204713658156
m1069224,c,1.027426137756903,1.028161620896022,0.000735483139118,0.001314340353808
l2766746,c,1.021111258357318,1.022072548254245,0.000961289896927,0.001921842123073
m1027073,c,1.020817498304645,1.021780724790872,0.000963226486226,0.001923448888155
m1069181,a,1.026226592671846,1.027637634418767,0.001411041746921,0.001715080872493
l2973151,a,1.026002814261014,1.027415212074784,0.001412397813770,0.001716392667401
l3179682,c,1.031090958951221,1.031608302016363,0.000517343065142,0.001166753564597
l2786274,c,1.031080648045978,1.031598047019724,0.000517398973746,0.001166788704696
l3066816,a,0.997571173788151,0.999905888436348,0.002334714648197,0.002896367528064
m1108529,a,1.031199611403901,1.032772617311444,0.001573005907543,0.002060618891543
m1108529,b,1.035742365516466,1.037328885517662,0.001586520001196,0.002358300157017
m1108529,c,1.042327011298185,1.042909010637100,0.000581999338916,0.001398001019117
m1108532,a,1.030868273456191,1.032443650759750,0.001575377303559,0.002063564160814
m1108532,b,1.035534922823499,1.037124154170483,0.001589231346984,0.002362490097645
m1108532,c,1.042337721803439,1.042920485600310,0.000582763796871,0.001400630563536
l2766723,a,0.997724717762584,1.000057926815237,0.002333209052652,0.002894581535000
l3122822,a,0.997705560967866,1.000038906243107,0.002333345275241,0.002894706026107
l2673312,a,0.997850375688806,1.000165396151294,0.002315020462488,0.002907899816768
l3235247,a,0.997826794672596,1.000141937682314,0.002315143009717,0.002908025301268
m1166391,c,1.027365953223192,1.027816791749624,0.000450838526432,0.000780682260437
l3254873,c,1.026810357114391,1.027264142491749,0.000453785377359,0.000783027308124
l2861157,c,1.032808369024069,1.033230771026874,0.000422402002804,0.000757912954134
m1047346,a,1.012122145263278,1.013643011326936,0.001520866063658,0.001793774663184
m1047346,b,1.006288835045076,1.008101713818841,0.001812878773765,0.002232771232412
m1047346,c,1.031691485454752,1.032419088825959,0.000727603371207,0.001299778775522
m1047345,a,1.011596521650591,1.013120637507161,0.001524115856570,0.001796358295544
m1047345,b,1.005834598712551,1.007650705026127,0.001816106313577,0.002235670174418
m1047345,c,1.031574500473415,1.032302633092220,0.000728132618805,0.001299765023315
l2822873,b,1.013486799141931,1.015327707452130,0.001840908310198,0.002743942753477
m1108328,c,1.027810990504046,1.028345736943845,0.000534746439799,0.001177480140517
l2875754,c,1.027799705830694,1.028334568200583,0.000534862369889,0.001177584453888
l2786204,c,1.041438604897052,1.041816201883736,0.000377596986684,0.000721570145789
m1009726,a,0.998837862550348,1.001143902791835,0.002306040241488,0.002897054662830
m1047702,a,1.021328678346627,1.023485499544531,0.002156821197904,0.002735474361388
l2767340,a,0.962108666989925,0.963353289715438,0.001244622725514,0.001641722208328
l2767340,b,0.987116364814277,0.988438872562206,0.001322507747929,0.001940970212731
l2767340,c,1.036186355814332,1.036717295940058,0.000530940125726,0.001237666374736
m1047457,b,0.988436290355161,0.990902155125333,0.002465864770171,0.003330100096877
l2710546,b,0.988310865427996,0.990777647438366,0.002466782010370,0.003331012761401
l2674027,a,0.939891260642771,0.941302997758719,0.001411737115948,0.001849629061944
l2674027,b,0.976329908696756,0.977803119809717,0.001473211112962,0.002187959449585
l2674027,c,1.035924914529972,1.036496921381985,0.000572006852012,0.001369034754426
l2692633,a,0.938889656043098,0.940308808326941,0.001419152283843,0.001858882883415
l2692633,b,0.975766670281575,0.977247504544889,0.001480834263314,0.002200060211777
l2692633,c,1.035919176879404,1.036493311333089,0.000574134453685,0.001376183364900
l2674051,a,0.996415648058654,0.997407550239888,0.000991902181235,0.001360924709584
m1069135,a,1.015541267318086,1.017039484528499,0.001498217210413,0.001775615733799
m1069135,b,1.009234832884345,1.011024948397510,0.001790115513164,0.002212417651087
m1069135,c,1.032614249816002,1.033336451054613,0.000722201238611,0.001298362526536
m1047534,a,1.037654823361866,1.039715035894729,0.002060212532863,0.002658934693089
m1047534,b,1.038890223291719,1.040931060707549,0.002040837415830,0.002992077359092
m1047534,c,1.043325269093304,1.044119672538404,0.000794403445099,0.001794776381512
l3097861,c,1.042432807901653,1.043032422754432,0.000599614852778,0.001456647120313
m1069560,b,1.012938381996688,1.014783419867628,0.001845037870940,0.002747180788446
l2973153,a,1.022829282794947,1.024976968739692,0.002147685944745,0.002732903271928
l2973153,b,1.021278423141296,1.023451018868509,0.002172595727213,0.003108949722422
l2973153,c,1.037914947013729,1.038762668738817,0.000847721725088,0.001854763327053
l2898515,c,1.040287215288094,1.040725565334544,0.000438350046450,0.000921949667351
m1166387,c,1.040260943048371,1.040699380100805,0.000438437052434,0.000922003521096
m1047442,b,0.992623900076308,0.995057902812465,0.002434002736157,0.003301725201623
l3235250,b,0.992614654686637,0.995048697487136,0.002434042800499,0.003301752892523
m1142871,a,0.985928934133820,0.986974815399214,0.001045881265394,0.001410862801572
m1142871,b,0.999993333139938,1.001141565281353,0.001148232141415,0.001655369181181
m1142871,c,1.036802063525216,1.037301713702077,0.000499650176861,0.001116621054710
m1142874,a,0.985200931982581,0.986252946103699,0.001052014121118,0.001417895091451
m1142874,b,0.999575914582440,1.000729740207405,0.001153825624964,0.001664156883415
m1142874,c,1.036764475779034,1.037265171832753,0.000500696053720,0.001120512544007
l2955081,a,0.996494319365596,0.997488273729175,0.000993954363579,0.001364130321580
l2955081,b,0.998190332261667,0.999347826151936,0.001157493890270,0.001642752312698
l2955081,c,1.031432831754361,1.031948419680411,0.000515587926050,0.001161423921489
m1108315,a,0.996542770685324,0.997538441189032,0.000995670503708,0.001366763104583
m1108315,b,0.997819943191171,0.998982010456135,0.001162067264964,0.001648304071063
m1108315,c,1.031121506638591,1.031638706703914,0.000517200065322,0.001166667231538
l2973162,a,0.996712185291217,0.998332838208223,0.001620652917006,0.001868761096387
l2973162,b,0.986246740347338,0.988198282985831,0.001951542638493,0.002360421261743
l2973162,c,1.030203203778660,1.030933406115907,0.000730202337247,0.001294491618007
m1026333,a,0.996629007411492,0.998250232782973,0.001621225371480,0.001868744190263
m1026333,b,0.985725614054191,0.987680756704992,0.001955142650801,0.002363813257004
m1026333,c,1.030325657171103,1.031054957747310,0.000729300576206,0.001294103706407
m1009832,b,1.005283029675016,1.007549832282360,0.002266802607344,0.003221511251818
l2860479,b,1.005277788057559,1.007544612044909,0.002266823987349,0.003221524826435
m1026854,a,1.014218568513895,1.016424035608333,0.002205467094439,0.002814964672879
m1026854,b,1.025173313321808,1.027313292934990,0.002139979613182,0.003107549075447
m1026854,c,1.034333253664562,1.035206635297190,0.000873381632628,0.001864124881727
m1026485,b,1.000170322729747,1.002020293890932,0.001849971161185,0.002268199347427
d6413567-3_int,a,1.029266070269171,1.030657160195431,0.001391089926260,0.001698312734547
d6413567-3_int,b,1.026359780746931,1.028001788064901,0.001642007317971,0.002079470742578
d6413567-3_int,c,1.032613032518941,1.033324651080644,0.000711618561703,0.001294732794622
e182724,a,1.029258586554803,1.030649760369040,0.001391173814237,0.001698412748281
e182724,b,1.026351064398271,1.027993178999531,0.001642114601260,0.002079593996588
e182724,c,1.032613805595831,1.033325455727647,0.000711650131815,0.001294768811907
l2933135,a,0.951757281829972,0.953081283468678,0.001324001638706,0.001739619732265
l2933135,b,0.982330939778906,0.983720673995092,0.001389734216186,0.002054173447545
l2933135,c,1.036106587275967,1.036653921901229,0.000547334625262,0.001292592998595
l2729414,a,1.001759905942241,1.004063959404549,0.002304053462308,0.002868119742243
l2729414,b,1.024415148482866,1.026600887942685,0.002185739459819,0.003090462588501
l2729414,c,1.019495259242284,1.020513030629096,0.001017771386812,0.001915672365929
l2729430,b,1.010432811488757,1.012666674268663,0.002233862779907,0.003196535479366
l2766742,b,1.009462804576440,1.011702871860917,0.002240067284477,0.003201198136615
l2860483,b,0.993132953446910,0.995501252058007,0.002368298611097,0.003260599269828
l2860490,a,1.013456978599795,1.014969588508382,0.001512609908587,0.001787175908653
l2860490,b,1.007481515855859,1.009285924875212,0.001804409019353,0.002225255705559
l2860490,c,1.032102609664611,1.032828229982302,0.000725620317691,0.001299344119632
l3104134,a,1.012680428568149,1.014197839793346,0.001517411225196,0.001791029217046
l3104134,b,1.006782597736992,1.008591967270480,0.001809369533487,0.002229658478077
l3104134,c,1.031851288999288,1.032578132041656,0.000726843042368,0.001299656571523
m1089118,a,1.037569380026070,1.038899334649891,0.001329954623821,0.001652966885489
m1089118,b,1.034536862683252,1.036108064873322,0.001571202190070,0.002021488811449
m1089118,c,1.036793426104804,1.037478858054707,0.000685431949903,0.001282001102397
l3048208,a,1.037560631106847,1.038890619936915,0.001329988830068,0.001652998084262
m1108505,a,0.942560844957673,0.943952784772598,0.001391939814925,0.001825180192294
m1108505,b,0.977854999375945,0.979307735967027,0.001452736591082,0.002155558914823
m1108505,c,1.035918169082683,1.036484702607914,0.000566533525231,0.001350183980407
l2955047,a,0.941744690895830,0.943142686152609,0.001397995256779,0.001832635320650
l2955047,b,0.977389619234784,0.978848604292846,0.001458985058062,0.002165442885503
l2955047,c,1.035921718588670,1.036489902684239,0.000568184095569,0.001355892817061
m1089148,a,0.976862876571204,0.978009966388238,0.001147089817034,0.001473778052438
l2766721,a,0.976847407075504,0.977994590927750,0.001147183852247,0.001473862705392
l3029183,b,0.986804838010613,0.989282796816452,0.002477958805839,0.003342164378260
l2710512,b,0.989155553179879,0.991556379064243,0.002400825884365,0.003287344473568
m1047828,b,0.988541052187856,0.990946478970192,0.002405426782336,0.003291091227021
l3197645,a,1.011498942338414,1.013023646978491,0.001524704640077,0.001796969423040
m1069192,a,1.026886428603758,1.028293625047607,0.001407196443848,0.001711373407852
l3235253,a,1.026867639551815,1.028274942897593,0.001407303345778,0.001711491157048
l3214071,a,0.974701075735439,0.975841062667135,0.001139986931696,0.001519455569120
l3214071,b,0.993679831157054,0.994912728367293,0.001232897210239,0.001791056508511
l3214071,c,1.036368001622866,1.036882866205373,0.000514864582507,0.001175657393280
m1125952,a,0.973675662736391,0.974824214257835,0.001148551521444,0.001529419836298
m1125952,b,0.993108812043529,0.994349345047280,0.001240533003751,0.001803539734632
m1125952,c,1.036336114623458,1.036852308974928,0.000516194351470,0.001181045196049
m1027101,b,0.988675764944918,0.991071768684998,0.002396003740080,0.003282041698261
l2860480,b,0.988632752718142,0.991029070257994,0.002396317539853,0.003282351593282
l2710517,a,0.994377571764704,0.996729939361579,0.002352367596874,0.002910995696571
m1026646,a,0.994175562736288,0.996529232181312,0.002353669445025,0.002912168422226
l2935547,b,1.006972341294314,1.008859692607212,0.001887351312898,0.002779935890583
m1026931,a,1.011205598977460,1.013429348486288,0.002223749508829,0.002830912052996
l3216336,a,1.011134137011874,1.013358306107237,0.002224169095363,0.002831276674245
l3142049,a,0.947010984600741,0.948370104226665,0.001359119625925,0.001783776321562
l3142049,b,0.980031021637301,0.981453216079081,0.001422194441780,0.002106087002177
l3142049,c,1.035985010545063,1.036542367900384,0.000557357355321,0.001322151634592
m1069169,a,1.027597168220424,1.029000281429695,0.001403113209271,0.001707442780829
m1069169,b,1.024933621800553,1.026588248673125,0.001654626872572,0.002090624316491
m1069169,c,1.032486325686180,1.033199719087376,0.000713393401196,0.001295069649298
l3010556,a,1.026644739784824,1.028055214074784,0.001410474289961,0.001712629345505
l3010556,b,1.023729859194020,1.025394864376900,0.001665005182879,0.002099717293085
l3010556,c,1.032421091251191,1.033135606878238,0.000714515627047,0.001295597373201
l2991933,c,1.030460383039566,1.031363733793478,0.000903350753911,0.001891877599845
l3122837,c,1.030367186673400,1.031271309464180,0.000904122790780,0.001892382626121
l2691936,a,1.011059003454549,1.013283592212125,0.002224588757576,0.002831638091005
l2897772,a,1.004589267690351,1.006157463804561,0.001568196114210,0.001832123220875
l2766732,b,1.000199189828906,1.002048957183212,0.001849767354305,0.002267989225086
l2989564,b,1.007024030792705,1.008911141725178,0.001887110932473,0.002779724179003
m1126016,a,0.940443351593548,0.941851053795211,0.001407702201663,0.001839609280074
m1026330,a,0.996498735565681,0.998120865867942,0.001622130302261,0.001868508804672
m1026330,b,0.984710050752278,0.986672208099702,0.001962157347424,0.002370428475814
m1026330,c,1.030578492538280,1.031305974982222,0.000727482443942,0.001293353979924
l2766726,b,0.984703515024244,0.986665704997159,0.001962189972915,0.002370458335038
m1108381,a,0.954408939155077,0.955727725422724,0.001318786267647,0.001712022028309
m1108381,b,0.981282842810786,0.982682639401922,0.001399796591136,0.002034236842343
m1108381,c,1.035282078415532,1.035822816182501,0.000540737766969,0.001258522733608
l3254237,a,0.954240902712449,0.955561279744386,0.001320377031937,0.001713248286245
l3254237,b,0.981172081227886,0.982572951210319,0.001400869982432,0.002035182562145
l3254237,c,1.035190432166571,1.035731888350724,0.000541456184153,0.001258968909471
l2804262,a,1.013841586759496,1.016049380255791,0.002207793496295,0.002816998151302
l2841639,a,1.013508886984319,1.015718747933239,0.002209860948920,0.002818807992454
l2708744,b,0.981983003564825,0.983377545326058,0.001394541761233,0.002031307663387
m1069519,a,1.004839012556833,1.006599458531108,0.001760445974275,0.002294044962205
m1069519,b,1.019156402235814,1.020954842912121,0.001798440676307,0.002703354585364
m1069519,c,1.044182448895302,1.044817282021678,0.000634833126376,0.001606239218866
l2897790,c,1.044777758067614,1.045407394826910,0.000629636759296,0.001606228226906
l2935566,c,1.044759471137498,1.045389204355711,0.000629733218213,0.001606297222490
l3216337,a,1.011197707491177,1.013421496359268,0.002223788868091,0.002830951933781
m1069548,c,1.044808206636931,1.045437682767934,0.000629476131003,0.001606113338560
l3120503,a,0.987161652512466,0.989549304064327,0.002387651551860,0.002973955364181
m1089145,a,0.977242002725690,0.978387409284116,0.001145406558426,0.001472105649429
m1089145,b,0.976877107970999,0.978220090139270,0.001342982168271,0.001789839735662
m1089145,c,1.016081229019160,1.016685775226947,0.000604546207787,0.001211895233649
l3215385,a,0.977230582335474,0.978376098124107,0.001145515788633,0.001472181835813
l3215385,b,0.976859813065315,0.978203006556693,0.001343193491378,0.001790048960181
l3215385,c,1.016071404425055,1.016676008010027,0.000604603584973,0.001211947256022
m1026852,a,1.013104524670865,1.015317262200462,0.002212737529597,0.002822360514596
m1026852,b,1.024429378252353,1.026573951953927,0.002144573701573,0.003113588797145
m1026852,c,1.034017605366903,1.034893110618082,0.000875505251178,0.001865838467535
m1069420,a,1.014097350533201,1.016277737974723,0.002180387441521,0.002751025456479
m1069420,b,1.005797612332749,1.008126629309643,0.002329016976894,0.003216508644803
m1069420,c,1.021219861742275,1.022273912749461,0.001054051007186,0.002079235211296
l3157708,c,1.032120776014323,1.033026650474597,0.000905874460274,0.001871177259629
m1047326,a,1.008505152776927,1.010048638444741,0.001543485667814,0.001811642272536
e182732,a,1.007017030858700,1.009283735529031,0.002266704670331,0.002836282092762
e182732,b,1.024881466232830,1.027057234915149,0.002175768682319,0.003085030497734
e182732,c,1.022572952022200,1.023563017393537,0.000990065371336,0.001904634307990
l3048205,c,1.018260745956321,1.018844712987097,0.000583967030776,0.001208977591545
m1108361,c,1.016448598602218,1.017042015400373,0.000593416798155,0.001215123124501
m3036169,a,0.994822517112811,0.997172040430835,0.002349523318024,0.002908441281612
l2673317,a,0.994810706363299,0.997160304634810,0.002349598271511,0.002908508515516
l3178981,b,1.008297826977490,1.010094237986349,0.001796411008859,0.002218197760990
m1047368,b,1.006648964402765,1.008456464174796,0.001807499772031,0.002228374996112
l2879794,a,0.995698763792984,0.996676608958454,0.000977845165470,0.001337773636416
m1142811,a,0.995659062900816,0.996637172434933,0.000978109534117,0.001338014242652
m1069565,b,1.013514064451694,1.015354873311890,0.001840808860197,0.002743883582256
l2785536,b,1.013473989510426,1.015314983607747,0.001840994097321,0.002744008403445
l3104114,b,1.007360296331358,1.009613883749552,0.002253587418194,0.003211161975094
m1009824,b,1.006928658644742,1.009184999227584,0.002256340582841,0.003213219099997
l2673308,a,1.016240881423489,1.018421938290772,0.002181056867284,0.002758749317886
l2673308,b,1.013674315264496,1.015933161323523,0.002258846059026,0.003157622539552
l2673308,c,1.023802359763562,1.024808618725815,0.001006258962253,0.002001836981859
l2991939,a,1.015982313824456,1.018163561501676,0.002181247677220,0.002758095166069
l2991939,b,1.012794757297323,1.015061286472648,0.002266529175325,0.003164216821780
l2991939,c,1.023531590365058,1.024542722306639,0.001011131941581,0.002009845532837
l2916606,c,1.020976475283984,1.021546029300145,0.000569554016161,0.001199645752938
l2822864,c,1.020962608730826,1.021532212098081,0.000569603367255,0.001199674034315
m1209822,c,1.035487977313035,1.035896519421084,0.000408542108048,0.000745095044474
m1069550,b,1.014106224966928,1.015942683160758,0.001836458193830,0.002740541580656
m1069551,b,1.014055016882807,1.015891864251213,0.001836847368406,0.002740842414969
l3141397,b,0.993113079500432,0.995481521328982,0.002368441828550,0.003260740160906
l3649299,a,1.018335497557447,1.020515462670073,0.002179965112625,0.002787390509990
m3772794,a,1.018328184917293,1.020508212083366,0.002180027166072,0.002787456791461
l3048887,b,0.988730310710127,0.990029413445171,0.001299102735045,0.001901252355706
m1047824,b,0.989522284871250,0.991912835997614,0.002390551126364,0.003277756084926
m1047834,b,0.988907129886055,0.991301553210296,0.002394423324241,0.003280780472812
l2879072,b,0.994969244030736,0.997385476284632,0.002416232253896,0.003287236210374
m1047441,b,0.992966215196413,0.995397605210926,0.002431390014513,0.003299588841694
m1108274,b,1.033008127233654,1.034584465424187,0.001576338190533,0.002027760919594
l3235244,a,1.012505041612437,1.014687816484222,0.002182774871785,0.002749633209352
m1069398,a,1.012451089553556,1.014634208764444,0.002183119210889,0.002749941426037
l2685805,a,1.004108649356661,1.006379816717354,0.002271167360693,0.002870443312124
l2786273,b,1.032911084190218,1.034488098999675,0.001577014809457,0.002028387285578
m1108278,b,1.032838201908926,1.034415757001583,0.001577555092656,0.002028890422113
l3254238,a,1.003766916355231,1.005341046503437,0.001574130148206,0.001835141997838
l3254238,b,0.996835861237982,0.998714519141914,0.001878657903932,0.002291778220085
l3254238,c,1.029424974044391,1.030162916171373,0.000737942126982,0.001302194216027
m1047303,a,1.003072857296550,1.004651553719984,0.001578696423434,0.001838499022651
m1047303,b,0.995777484592029,0.997663454483514,0.001885969891485,0.002298339436866
m1047303,c,1.029210803686679,1.029949687345683,0.000738883659004,0.001302600653818
l2897554,c,1.037205787516696,1.038060220868259,0.000854433351563,0.001858363630508
m1069627,b,1.006784067500394,1.008673968979110,0.001889901478715,0.002782089738168
l2897791,b,1.006581841529636,1.008473477980155,0.001891636450519,0.002783493055580
m1089097,b,1.033547402242202,1.035120204648122,0.001572802405921,0.002024512442332
l2936214,a,0.947698610377393,0.949052625826865,0.001354015449472,0.001777346085098
l3066810,c,1.021930564900404,1.022968087417432,0.001037522517028,0.002051967299829
l2897769,c,1.021784668525619,1.022823068490654,0.001038399965034,0.002052499064722
m1209753,b,1.025770916326704,1.026540788313912,0.000769871987209,0.001113673816750
l2858166,a,1.029411609040832,1.031520653045016,0.002109044004184,0.002710043535308
l2858166,b,1.032466905296267,1.034558817942026,0.002091912645759,0.003044237642074
l2858166,c,1.039183636072656,1.040018035491771,0.000834399419114,0.001837665651169
m1142843,a,0.996765294051893,0.997719479339820,0.000954185287927,0.001306337077933
m1142843,b,1.006248412975120,1.007312880980336,0.001064468005217,0.001526192769970
m1142843,c,1.037509132649026,1.037992124750050,0.000482992101024,0.001058823914564
l3081380,a,0.996720166333626,0.997676932517076,0.000956766183450,0.001310159890272
l3081380,b,1.005720925625657,1.006791238412922,0.001070312787265,0.001533522416004
l3081380,c,1.037102378066161,1.037587590067403,0.000485212001242,0.001065384880653
l2804272,b,1.013996871884761,1.015834287590470,0.001837415705709,0.002741309882514
l2841641,b,1.013984691923668,1.015822162974537,0.001837471050869,0.002741358000597
m1069393,b,0.998332032755116,1.000723434587515,0.002391401832399,0.003267053514788
m1069408,b,0.997620585740517,1.000017163462561,0.002396577722044,0.003271239245733
l3216348,a,0.990364129537924,0.992743193899825,0.002379064361900,0.002935185154278
l2841627,a,0.990135289346996,0.992516097673895,0.002380808326899,0.002936785944366
l2916599,a,1.011870466176231,1.014090373478265,0.002219907302034,0.002827586096498
m1047447,b,0.990829128020026,0.993276928589228,0.002447800569201,0.003313092613696
l2954349,b,0.990809862302876,0.993257806081437,0.002447943778561,0.003313209552566
l3235246,b,0.989510868251081,0.991909035867531,0.002398167616451,0.003285181488515
l2711224,b,0.999605002304427,1.000741914380978,0.001136912076551,0.001616900854565
l3122817,c,1.031818282069890,1.032709114237379,0.000890832167490,0.001884325837117
m1186061,a,1.022904087779556,1.023582792331489,0.000678704551933,0.000989131309685
m1186061,b,1.026069527219983,1.026838683925918,0.000769156705935,0.001112296916613
m1186061,c,1.042801859681051,1.043205644421759,0.000403784740708,0.000828348644278
l2861223,b,1.026056490003051,1.026825718125064,0.000769228122013,0.001112359590413
m1069130,a,1.015338309609143,1.016837623986413,0.001499314377271,0.001776686648557
l3085396,a,1.015296868798616,1.016796404782142,0.001499535983527,0.001776902432408
e182730,a,1.008452792189071,1.010709307384392,0.002256515195321,0.002827594917014
m1069417,a,1.013527170614542,1.015706227404084,0.002179056789541,0.002747581537417
m1069417,b,1.003412432452655,1.005763132069260,0.002350699616605,0.003234330709961
m1069417,c,1.020468927387452,1.021538582032042,0.001069654644589,0.002104542612540
m1026987,b,0.992174148573536,0.994548222170233,0.002374073596697,0.003264960800797
m1142832,a,0.996617530023787,0.997579749154860,0.000962219131073,0.001318140555992
m1142832,b,1.004613849735557,1.005696335228982,0.001082485493424,0.001548828023891
m1142832,c,1.036258775988622,1.036748588083930,0.000489812095308,0.001078925836200
l3160865,a,0.996571702572709,0.997535594904764,0.000963892332056,0.001320516986813
l3160865,b,1.004304041078513,1.005389987952759,0.001085946874246,0.001553331534076
l3160865,c,1.036045164266430,1.036536152481111,0.000490988214682,0.001082639149661
l2673323,c,1.030407619198738,1.031310799618110,0.000903180419372,0.001890276058300
l2822869,a,1.017039917625242,1.019235506383663,0.002195588758421,0.002774941956835
l2822869,b,1.025737198252087,1.027894606075534,0.002157407823447,0.003074452444887
l2822869,c,1.028384081591718,1.029323929912085,0.000939848320366,0.001885869695005
m1026808,a,1.015725545967436,1.017930551354825,0.002205005387389,0.002782880973071
m1026808,b,1.025614948273996,1.027774795449442,0.002159847175446,0.003075699981895
m1026808,c,1.027534100890665,1.028480970933598,0.000946870042933,0.001888393588787
m1047825,b,0.987533851816719,0.989947602875393,0.002413751058674,0.003298014487257
m1069731,b,0.987309812111323,0.989725483320589,0.002415671209265,0.003299623872739
l2729410,c,1.027526857217160,1.028473768905663,0.000946911688503,0.001888427330405
l3178978,a,0.993506867787713,0.995864885479410,0.002358017691697,0.002916090597695
m1069384,a,1.012699649268771,1.014881152652477,0.002181503383707,0.002748491354337
l3066805,a,1.012686746073413,1.014868337031307,0.002181590957893,0.002748569884045
m1047319,c,1.028495645049380,1.029238588920598,0.000742943871218,0.001305622560803
m1047318,c,1.028440494798334,1.029183752027594,0.000743257229260,0.001305856108247
l3216358,a,1.010131541482417,1.012363936872832,0.002232395390414,0.002841150494099
m1026826,a,1.009947812890249,1.012181454844336,0.002233641954086,0.002842236696462
m1047763,a,1.015666230615484,1.017858603828728,0.002192373213244,0.002737557373391
m1047763,b,0.997669880810960,1.000009182349685,0.002339301538725,0.003237973747103
m1047763,c,1.042717350318957,1.043529082743173,0.000811732424216,0.001848142456336
m1108540,c,1.041513080207993,1.042099858039479,0.000586777831487,0.001400803563540
l2804259,a,0.996605912055242,0.998227281337334,0.001621369282092,0.001868905694995
m1047513,a,1.022272159915962,1.024431016019697,0.002158856103734,0.002745264891666
m1047513,b,1.027387302644033,1.029526573990994,0.002139271346960,0.003064789965884
m1047513,c,1.032131648193615,1.033037485613846,0.000905837420231,0.001871160916590
m1047507,a,1.020383186887299,1.022554906988993,0.002171720101694,0.002754846696695
m1047507,b,1.026014762195429,1.028166313726122,0.002151551530693,0.003071493005681
m1047507,c,1.030513098260658,1.031435480693337,0.000922382432679,0.001879826671976
m1142863,a,0.991344162049815,0.992344338141687,0.001000176091872,0.001358710073696
m1142863,b,1.003111405575686,1.004217813271348,0.001106407695662,0.001590231703084
m1142863,c,1.037096732007667,1.037588498572804,0.000491766565137,0.001087748790263
m1125916,b,0.999981365946694,1.001116196722573,0.001134830775879,0.001615148890720
l2879767,b,0.999961097977408,1.001095991149440,0.001134893172032,0.001615195390154
l3066809,c,1.022959153025609,1.023967289439644,0.001008136414035,0.001996957606899
m1069487,c,1.022759350231720,1.023768832464005,0.001009482232284,0.001997801765076
m1142818,a,0.996284153238452,0.997258123127845,0.000973969889393,0.001334615643437
m1142818,b,1.002432427253339,1.003539209589545,0.001106782336206,0.001580206387940
m1142818,c,1.034748381242334,1.035246497584067,0.000498116341732,0.001104725363561
q14733,a,1.044488845932184,1.046508478009160,0.002019632076976,0.002615666130194
q14733,b,1.044093048276217,1.046091518218947,0.001998469942730,0.002950419986038
q14733,c,1.047129036037940,1.047886950417759,0.000757914379818,0.001756955722033
m1047568,a,1.044092389058111,1.046114380049671,0.002021990991559,0.002618184278555
m1047568,b,1.043794798602641,1.045795701947042,0.002000903344400,0.002952797899758
m1047568,c,1.046907208462918,1.047667247568008,0.000760039105090,0.001759130662832
l2954338,b,1.006738908749865,1.008996466543720,0.002257557793854,0.003214076812955
m1047409,a,0.990617999245515,0.992995282206769,0.002377282961253,0.002933558429536
l2841648,a,0.990566477460295,0.992944037863703,0.002377560403407,0.002933802067924
m1089177,c,1.009220977889498,1.009853980731302,0.000633002841803,0.001241731836680
l2954347,b,1.014662472426432,1.016867517502907,0.002205045076475,0.003177090765906
l3027124,c,1.026502321123371,1.026957754696125,0.000455433572754,0.000784476922999
m1026824,a,1.002188647306850,1.004472203496965,0.002283556190115,0.002877741820898
m1026824,b,1.011111076820498,1.013340630331524,0.002229553511026,0.003192779461150
m1026824,c,1.030652565282704,1.031554160945844,0.000901595663140,0.001890708995430
m1047453,b,0.988869261650282,0.991331992973888,0.002462731323606,0.003326987215375
l2691948,b,0.988858321397945,0.991321111166310,0.002462789768366,0.003327042509713
m1089205,a,1.015682922924123,1.017366350375114,0.001683427450991,0.002200630981647
l2710542,b,1.010761459156569,1.012993212290930,0.002231753134361,0.003194950064751
m3032980,a,1.023298781324510,1.023975028939029,0.000676247614518,0.000987435501471
m3032980,b,1.026553521587980,1.027319399463047,0.000765877875067,0.001109395978047
m3032980,c,1.043161169410820,1.043562426365910,0.000401256955090,0.000826867872272
l2917330,a,0.995592167505223,0.996570749032027,0.000978581526804,0.001338446003430
l2861222,a,0.995546974395929,0.996525916574892,0.000978942178963,0.001338779149182
m1047490,a,1.018076678834728,1.020258761435267,0.002182082600539,0.002765900163615
m1047490,b,1.022374705886736,1.024557891091598,0.002183185204862,0.003097538808064
m1047490,c,1.028137904420235,1.029089181261290,0.000951276841054,0.001916948403107
l2878848,c,1.037408553836912,1.038260835015843,0.000852281178931,0.001856901059183
m1047486,a,1.017120017816216,1.019302104120799,0.002182086304583,0.002763308555661
m1047486,b,1.018102967242583,1.020323242016790,0.002220274774207,0.003126580030191
m1047486,c,1.025836744553221,1.026816027540801,0.000979282987580,0.001959177052740
l3177665,a,1.017113565368735,1.019295708226048,0.002182142857312,0.002763370660174
l2805036,b,1.032828815750982,1.034406401932026,0.001577586181045,0.002028916058747
l2692654,a,0.996259918579213,0.997242610289023,0.000982691709810,0.001347084348969
m1047672,a,1.022247610626985,1.024398833361321,0.002151222734337,0.002733893369031
m1047672,b,1.019917713954110,1.022100020882474,0.002182306928364,0.003116155854272
m1047672,c,1.038082675198278,1.038929147200619,0.000846472002341,0.001854636130777
m1125919,a,0.996308665926165,0.997291033455465,0.000982367529301,0.001346732853431
m1125919,b,1.000606922966319,1.001734796529110,0.001127873562790,0.001606474973463
m1125919,c,1.033430579315973,1.033935710505329,0.000505131189356,0.001127956500952
m1142819,a,0.996328478796901,0.997300623741447,0.000972144944546,0.001331956739999
m1142819,b,1.002756425982388,1.003859451777764,0.001103025795376,0.001575333982327
m1142819,c,1.034990508591193,1.035487299600427,0.000496791009234,0.001100611638141
m3036172,b,1.026300107110869,1.027067573114413,0.000767466003544,0.001111510484754
m1089143,a,0.977295176583686,0.978440028507889,0.001144851924202,0.001471654337573
m1089143,b,0.976946981675624,0.978289111585074,0.001342129909450,0.001789029006268
m1089143,c,1.016132815494671,1.016736917975159,0.000604102480488,0.001211535937604
l3141400,a,0.977282191198173,0.978427084335493,0.001144893137320,0.001471689744200
m1069481,a,1.016438762213265,1.018619633298166,0.002180871084902,0.002759276711028
m1069481,b,1.014355046734447,1.016607941670188,0.002252894935741,0.003152429609912
m1069481,c,1.023995004940504,1.024997708453425,0.001002703512921,0.001995857120967
m1026377,a,0.995088347730332,0.996719758218378,0.001631410488047,0.001880272528153
l3048210,a,0.995025852359274,0.996657805825148,0.001631953465874,0.001880822049690
e182722,a,1.013201277595642,1.015379292957179,0.002178015361536,0.002745332828484
m1026331,a,0.996571933081480,0.998193559222309,0.001621626140829,0.001868634784952
m1026331,b,0.985269643658332,0.987227934488990,0.001958290830658,0.002366776731560
m1026331,c,1.030433465272482,1.031161971082583,0.000728505810101,0.001293780560845
l3214055,c,1.030419890597347,1.031148446020967,0.000728555423620,0.001293813554257
l2936279,a,0.990855189006656,0.991898344441667,0.001043155435011,0.001402045706057
l2936279,b,0.991532105754267,0.992751828316239,0.001219722561972,0.001699456970386
l2936279,c,1.026981260278631,1.027522708802441,0.000541448523810,0.001183609471193
m1026704,b,0.986799494678977,0.989277660096493,0.002478165417516,0.003342393186871
l2841634,b,0.986734679385668,0.989213489007680,0.002478809622012,0.003343058486202
m1047386,b,1.003525685660348,1.005353987713200,0.001828302052853,0.002247382014938
m1089115,a,1.035183506031862,1.036531658104813,0.001348152072951,0.001666446650603
m1089115,b,1.031798135234641,1.033392778426327,0.001594643191686,0.002039523533463
m1089115,c,1.034372644262491,1.035071803202843,0.000699158940351,0.001289717830779
m1026486,b,1.000151307706993,1.002001384592186,0.001850076885193,0.002268302109255
l3010570,a,0.996651227220028,0.998272133085444,0.001620905865416,0.001869808599447
m1125968,a,0.966322266205561,0.967531617408739,0.001209351203178,0.001600333808200
m1125968,b,0.989190915580623,0.990484174950290,0.001293259369668,0.001891601750682
m1125968,c,1.036266222941820,1.036791285470170,0.000525062528350,0.001217648252694
m1069412,b,0.996785420662482,0.999188112272389,0.002402691609907,0.003276195727050
l2879061,b,0.996773354590428,0.999176097766069,0.002402743175640,0.003276231424412
m1142880,c,1.023787794310455,1.024256450812006,0.000468656501552,0.000795939920039
l2891575,c,1.023765627593775,1.024234360448421,0.000468732854647,0.000795998237405
m1026848,a,1.007933546143023,1.010180340614375,0.002246794471352,0.002855125453066
l2897793,a,0.997742013165207,0.999551984544606,0.001809971379398,0.002364252702189
m1069521,a,0.997710294450928,0.999520478845027,0.001810184394099,0.002364441290983
m1069175,a,1.030312525460252,1.031696098237279,0.001383572777028,0.001692653767344
m1069175,b,1.027252959358602,1.028887085319840,0.001634125961238,0.002072544160406
m1069175,c,1.032693511565675,1.033404033085619,0.000710521519944,0.001294546336311
l3197637,c,1.032682482823815,1.033393033468612,0.000710550644797,0.001294562564100
l3197635,b,0.992952768253752,0.995384230143024,0.002431461889273,0.003299643100387
l2804257,b,1.012558146238188,1.014776723318324,0.002218577080136,0.003183677014449
l2860485,b,1.012524752944914,1.014743523402688,0.002218770457774,0.003183855296776
l3235945,c,1.041339806468326,1.041927632395018,0.000587825926692,0.001401425447447
l2842330,c,1.041286778813199,1.041874933371241,0.000588154558042,0.001401621915958
l2804254,a,1.015040184505513,1.017236420624502,0.002196236118988,0.002741033500851
m1166370,c,1.040785471517764,1.041221851717505,0.000436380199741,0.000920678928349
m3763619,a,1.022072170278917,1.024226363623356,0.002154193344439,0.002758772380787
m3763619,b,1.028146149786616,1.030268339968234,0.002122190181618,0.003079173063499
m3763619,c,1.036332755911550,1.037192423468255,0.000859667556705,0.001860058086868
m3037540,c,1.015271387668763,1.015870901049241,0.000599513380477,0.001219110000846
l2710509,c,1.015269960840788,1.015869481090583,0.000599520249795,0.001219115795610
l2763072,b,0.979727276846991,0.981724695656349,0.001997418809357,0.002404020550519
l3010560,a,1.016893178381553,1.019074680212837,0.002181501831285,0.002761744188270
l3010560,b,1.016705393870320,1.018937801340792,0.002232407470472,0.003136014810789
l3010560,c,1.025097939149214,1.026086178942982,0.000988239793769,0.001973043417871
l3254219,c,1.031671789297933,1.032399501441137,0.000727712143205,0.001299876982754
l3254220,c,1.031654916052863,1.032382721209226,0.000727805156363,0.001299962486973
m1026648,a,0.995590575179601,0.997935181008208,0.002344605828608,0.002904018386089
m1089112,a,1.033829688427111,1.035188156147865,0.001358467720754,0.001674143942965
m1089112,b,1.030251912127717,1.031859805612266,0.001607893484549,0.002049805839595
m1089112,c,1.033024423805085,1.033731273365659,0.000706849560574,0.001294099603727
l2691951,c,1.032454332858331,1.033163968723462,0.000709635865131,0.001296026977827
m1026327,b,0.983555181500331,0.985525403474355,0.001970221974024,0.002378102960960
l2841636,b,0.982676537689426,0.984652923505225,0.001976385815799,0.002383966339664
l2990826,a,0.953934269815753,0.955257272853337,0.001323003037584,0.001715366196219
l2990826,b,0.980793992729708,0.982197997737422,0.001404005007714,0.002037747555005
l2990826,c,1.034899255972035,1.035442614166216,0.000543358194181,0.001260133467634
l2911069,b,1.003906544940656,1.006181884182706,0.002275339242050,0.003228140569052
l2948732,b,1.003872344635024,1.006147855990412,0.002275511355388,0.003228295140258
m1069312,c,1.017540862192212,1.018654514392656,0.001113652200444,0.002162915968888
l2876797,a,1.016142145833095,1.018331465766929,0.002189319933833,0.002737783385787
l2876797,b,0.999710796812130,1.002035761305832,0.002324964493702,0.003226588115771
l2876797,c,1.042215373120631,1.043030675263221,0.000815302142590,0.001848706914435
l3254227,b,1.014745556343217,1.016577084008870,0.001831527665653,0.002736719526204
m3037455,c,1.036148925628791,1.036639188408501,0.000490262779710,0.001079199017721
l3217052,c,1.036122542425027,1.036612946188219,0.000490403763193,0.001079290636519
l2822861,a,1.014357441578450,1.016538604018122,0.002181162439672,0.002752879709839
m1047724,a,1.019488986657814,1.021657328763661,0.002168342105847,0.002736924699329
m1047724,b,1.011789227145887,1.014029079177982,0.002239852032095,0.003159723622478
m1047724,c,1.039414219620669,1.040249955504901,0.000835735884232,0.001852590460313
m1047722,a,1.019267085966818,1.021436827944056,0.002169741977239,0.002737100118880
m1047722,b,1.011068285194500,1.013313223456797,0.002244938262297,0.003163656292580
m1047722,c,1.039557469416585,1.040392102380162,0.000834632963578,0.001852375845805
d5534969-2_int,a,1.005348354384106,1.007104919143306,0.001756564759200,0.002294195097603
d5534969-2_int,b,1.020146632764765,1.021937799516450,0.001791166751685,0.002689461518041
d5534969-2_int,c,1.043544629051653,1.044184334337004,0.000639705285351,0.001605535216505
e182729,a,1.005303851839770,1.007060792470061,0.001756940630291,0.002294614895109
e182729,b,1.020101033609989,1.021892597976006,0.001791564366017,0.002689873781579
e182729,c,1.043516861135387,1.044156879897708,0.000640018762321,0.001605823095224
m1047699,a,1.021337060670018,1.023493830194541,0.002156769524523,0.002735420281280
m1047699,b,1.017612825146596,1.019811530971233,0.002198705824636,0.003128273742504
m1047699,c,1.038377982232652,1.039222072514308,0.000844090281656,0.001854160343824
l2935554,a,1.020866280659303,1.023025933389503,0.002159652730200,0.002735886409030
l2935554,b,1.016268517492265,1.018476752987983,0.002208235495718,0.003135480008785
l2935554,c,1.038605947874784,1.039448150425081,0.000842202550297,0.001853784668041
m1047292,a,1.000342635501629,1.001939309536397,0.001596674034768,0.001851650091638
m1047292,b,0.991806374813410,0.993719671604322,0.001913296790912,0.002323844015942
m1047292,c,1.029300731715014,1.030038037088852,0.000737305373838,0.001300508951328
l2766750,c,1.029268105309968,1.030005676771974,0.000737571462006,0.001300717938029
l3649300,a,1.018234536502901,1.020415352260916,0.002180815758015,0.002788298652018
l3066804,a,0.997282603681886,0.999096051540986,0.001813447859100,0.002367770811934
m3327098,b,0.988274244339846,0.990681120431251,0.002406876091405,0.003292177080922
l2691943,b,0.988229860255419,0.990636974665597,0.002407114410178,0.003292355013386
m1125904,a,0.996428202246075,0.997420057170691,0.000991854924616,0.001360876868290
l3085388,b,0.973323638755558,0.975367113776495,0.002043475020937,0.002448127607439
l3233413,b,0.980499398680231,0.981916428219037,0.001417029538806,0.002051678980174
l3122827,a,0.998457093537214,1.000783530311216,0.002326436774001,0.002887727436410
l2954355,a,0.998116953612500,1.000445544818425,0.002328591205925,0.002889656959373
l2952003,a,0.954702667893769,0.956018494879413,0.001315826985645,0.001709759787102
l2952003,b,0.981578295282311,0.982975029447970,0.001396734165658,0.002032030493798
l2952003,c,1.035538052964522,1.036076564831134,0.000538511866612,0.001257520693406
l3008237,c,1.044789495158658,1.045419081778403,0.000629586619745,0.001606098086759
m1125978,b,0.989722746937535,0.991008627420668,0.001285880483133,0.001878947637722
m1026706,a,0.998485644963987,1.000813865693072,0.002328220729085,0.002888932468051
m1026706,b,1.023971641478159,1.026165854357640,0.002194212879481,0.003094588018939
m1026706,c,1.016947012564294,1.017988402831907,0.001041390267613,0.001926987261082
l3141399,c,1.027162562783994,1.027899750484246,0.000737187700252,0.001315622269963
m3763624,a,1.022082921416956,1.024236965780461,0.002154044363506,0.002758660169542
m3763624,b,1.028139795101765,1.030262092633478,0.002122297531714,0.003079132693193
m3763624,c,1.036296635822624,1.037156780458228,0.000860144635604,0.001860475438097
m1142839,a,0.996650438569513,0.997610912977680,0.000960474408167,0.001315601214047
m1142839,b,1.004960378655530,1.006039042784399,0.001078664128869,0.001543961729253
m1142839,c,1.036514719760049,1.037003158033924,0.000488438273875,0.001074716303200
l3067507,c,1.036505340072829,1.036993846782224,0.000488506709395,0.001074805630608
m1142826,b,1.002682607589707,1.003785911091459,0.001103303501752,0.001575553020478
l2692664,c,1.025527133683148,1.026073420455976,0.000546286772829,0.001184954798673
l2823544,a,0.940493968377730,0.941901253382726,0.001407285004997,0.001839223110370
l2973155,a,1.016660997626584,1.018847037915055,0.002186040288471,0.002737868198695
l2973155,b,1.001771018280079,1.004081490083220,0.002310471803141,0.003215086324111
l2973155,c,1.041707418016453,1.042526337555792,0.000818919539339,0.001849346002860
l3216346,a,0.997611765271182,0.999926129004077,0.002314363732895,0.002904447524984
l2858163,a,0.997435982956475,0.999751698266691,0.002315715310216,0.002905672362539
l2973149,b,0.989554463144302,0.991944774742720,0.002390311598418,0.003277562404107
l3086079,b,1.026299337203702,1.027066805219969,0.000767468016267,0.001111512052095
l2710530,b,1.013438347595165,1.015279700959817,0.001841353364652,0.002744317533041
m4113348,a,1.013851426125085,1.016016735830693,0.002165309705608,0.002736639442836
m4113348,c,1.017571557094201,1.018684043464148,0.001112486369947,0.002161579552095
l2879074,a,0.994125483570554,0.996479457822325,0.002353974251771,0.002912489347835
e193509,a,0.996672584053817,0.997631615097116,0.000959031043298,0.001313463374808
e193509,b,1.005260093153933,1.006335455091447,0.001075361937514,0.001539818067258
e193509,c,1.036742211791309,1.037229414456246,0.000487202664937,0.001071007346906
m1047794,b,0.993543377469458,0.995912138457016,0.002368760987558,0.003261477755698
l3027116,a,1.002557458908484,1.004139524486942,0.001582065578458,0.001840975401014
l3027116,b,0.995048972888870,0.996939965089118,0.001890992200249,0.002303009281520
l3027116,c,1.029212796737387,1.029951473215088,0.000738676477702,0.001302258708562
l2929261,a,1.021315879503143,1.023472762681712,0.002156883178570,0.002735537503320
m1166375,a,1.007013431273383,1.007862678851023,0.000849247577640,0.001184643633891
m1166375,b,1.014315770952700,1.015266866646523,0.000951095693823,0.001364787940050
m1166375,c,1.039751315740730,1.040204693270088,0.000453377529358,0.000969826775558
l2973156,b,0.999714195564871,1.002095589566808,0.002381394001937,0.003258973049401
m1069311,a,1.013880118302451,1.016045190525115,0.002165072222664,0.002736278588176
m1069311,b,1.001078238223282,1.003454945673234,0.002376707449952,0.003244175173601
m1069311,c,1.017679853256988,1.018791334000559,0.001111480743571,0.002160890846792
m1069208,c,1.029154249452454,1.029880267847486,0.000726018395032,0.001307481071749
l2691945,c,1.029145519667286,1.029871587338835,0.000726067671549,0.001307517072224
m1026468,b,1.000406180035331,1.002254518493327,0.001848338457996,0.002266515945947
m1026662,a,0.997509318928683,0.999843099766575,0.002333780837892,0.002896016342988
m1026662,b,1.024143237626397,1.026337523099303,0.002194285472906,0.003091438300270
m1026662,c,1.015212316454753,1.016270810952447,0.001058494497693,0.001938511848989
m1026941,a,1.010991368378627,1.013216342548473,0.002224974169846,0.002831971264368
m1026942,a,1.010976776534966,1.013201836651697,0.002225060116731,0.002832042669021
m1047713,a,1.020614307217292,1.022775514512105,0.002161207294813,0.002736125096256
m1047713,b,1.015531581855059,1.017745036644378,0.002213454789318,0.003139432771869
m1047713,c,1.038731173564172,1.039572340930405,0.000841167366233,0.001853584995863
m1047720,a,1.020044968296288,1.022209795645311,0.002164827349023,0.002736507050137
m1047720,b,1.013609340604737,1.015836353881394,0.002227013276657,0.003149798682583
m1047720,c,1.039049736678157,1.039888274997471,0.000838538319314,0.001853152784190
m1108298,a,0.995998423498216,0.997002348257922,0.001003924759706,0.001375973349833
m1108298,b,0.997186803250662,0.998358720854074,0.001171917603412,0.001664760602735
m1108298,c,1.031212260790407,1.031729427023669,0.000517166233262,0.001172657183068
e183472,a,0.957531506745068,0.958812838103901,0.001281331358833,0.001685774233469
e183472,b,0.984988383853280,0.986340324364671,0.001351940511391,0.001993813390316
e183472,c,1.036325645936269,1.036860318382364,0.000534672446096,0.001258091457609
l2989566,a,0.956216175029358,0.957514433332275,0.001298258302917,0.001697850165283
l2989566,b,0.983543009509708,0.984914980794634,0.001371971284926,0.002011484148616
l2989566,c,1.036168320659061,1.036702855440578,0.000534534781517,0.001256442705469
m1010004,a,0.986902984112207,0.989292424836768,0.002389440724560,0.002975846889296
m1089188,c,1.008450792958588,1.009089041150548,0.000638248191960,0.001245442653490
l2972704,c,1.031482421623579,1.032196783539377,0.000714361915798,0.001299396431255
l3263051,c,1.031454450646901,1.032168966493638,0.000714515846737,0.001299536518868
l2897776,c,1.027196107113211,1.027932901870576,0.000736794757364,0.001315298897766
l2767414,c,1.027467187958340,1.028003644658632,0.000536456700292,0.001178861973868
m1069572,b,1.013452126996791,1.015293417632239,0.001841290635448,0.002744262937327
l3066826,b,1.013405618517729,1.015247329193085,0.001841710675356,0.002744603418126
m1166356,a,1.008916724147702,1.009745063150563,0.000828339002861,0.001160378209387
l2730187,a,1.008891347311449,1.009719879525983,0.000828532214534,0.001160555367788
l3122825,a,0.995777889690137,0.997404690296260,0.001626800606123,0.001875674670193
l2991920,a,0.995769232260175,0.997396071312696,0.001626839052521,0.001875717240182
l3122826,a,1.010049943263010,1.011583518230165,0.001533574967156,0.001803862835792
m1047358,a,1.010003314388467,1.011537066674552,0.001533752286085,0.001804029933116
l3142078,b,1.032120431570837,1.033699000265412,0.001578568694575,0.002029459317384
l2879752,b,1.032091764702217,1.033670455520067,0.001578690817850,0.002029565285909
m1027023,a,0.993677086649009,0.996020993453833,0.002343906804824,0.002933484379108
m1027023,b,1.012519179018312,1.014738098102690,0.002218919084379,0.003183474097211
m1027023,c,1.023899429459439,1.024842090246419,0.000942660786981,0.001910172713997
l3122815,b,1.012502856181507,1.014721856324015,0.002219000142507,0.003183530113625
l2724120,c,1.030724201110866,1.031441820435271,0.000717619324405,0.001301578717173
l2729429,a,1.008409203669479,1.010665986590526,0.002256782921047,0.002827833336626
...